Version 4.1
SHEET 1 2180 836
WIRE 816 -464 752 -464
WIRE 752 -416 752 -464
WIRE 816 -416 816 -464
WIRE 704 -304 672 -304
WIRE 752 -288 752 -336
WIRE 848 -288 752 -288
WIRE 1728 -288 1728 -352
WIRE 1728 -288 928 -288
WIRE 704 -272 704 -304
WIRE 1728 -272 1728 -288
WIRE 672 -208 672 -304
WIRE 752 -192 752 -288
WIRE 752 -192 704 -192
WIRE 640 -176 528 -176
WIRE 736 -160 704 -160
WIRE 784 -160 736 -160
WIRE 1728 -160 1728 -192
WIRE 1728 -160 864 -160
WIRE 176 -112 176 -176
WIRE 672 -112 672 -144
WIRE 1728 -80 1728 -160
WIRE 528 -16 528 -176
WIRE 576 -16 528 -16
WIRE 736 -16 736 -160
WIRE 736 -16 656 -16
WIRE 1328 0 1328 -48
WIRE 176 16 176 -32
WIRE 1728 32 1728 0
WIRE 1840 32 1728 32
WIRE 2016 32 1904 32
WIRE 2160 32 2016 32
WIRE 1264 48 960 48
WIRE 1728 48 1728 32
WIRE 2160 64 2160 32
WIRE 2016 80 2016 32
WIRE 720 112 720 64
WIRE 528 128 528 -16
WIRE 688 128 528 128
WIRE 1328 128 1328 96
WIRE 1536 128 1328 128
WIRE 1568 128 1536 128
WIRE 1680 128 1648 128
WIRE 864 144 752 144
WIRE 960 144 960 48
WIRE 960 144 864 144
WIRE 1104 144 1088 144
WIRE 1200 144 1184 144
WIRE 688 160 672 160
WIRE 1328 160 1328 128
WIRE 1536 160 1536 128
WIRE 1728 176 1728 144
WIRE 2016 176 2016 144
WIRE 2160 176 2160 144
WIRE 720 208 720 176
WIRE 1200 208 1200 144
WIRE 1264 208 1200 208
WIRE 1200 240 1200 208
WIRE 1536 272 1536 240
WIRE 560 288 512 288
WIRE 672 288 672 160
WIRE 672 288 640 288
WIRE 688 288 672 288
WIRE 864 288 864 144
WIRE 864 288 768 288
WIRE 960 288 960 144
WIRE 1040 288 960 288
WIRE 1136 288 1120 288
WIRE 1328 304 1328 256
WIRE 1200 368 1200 336
WIRE 560 384 528 384
WIRE 672 384 672 288
WIRE 672 384 640 384
WIRE 528 400 528 384
FLAG 720 208 0
FLAG 176 16 0
FLAG 176 -176 +12
FLAG 720 64 +12
FLAG 528 400 0
FLAG 512 288 +12
FLAG 1728 176 0
FLAG 1728 -352 +12
FLAG 672 -112 +12
FLAG 704 -272 0
FLAG 816 -416 0
FLAG 2016 176 0
FLAG 2160 176 0
FLAG 1328 -48 +12
FLAG 1328 304 0
FLAG 1200 368 0
FLAG 1088 144 +12
FLAG 1536 272 0
SYMBOL voltage 176 -128 R0
WINDOW 123 0 0 Left 0
WINDOW 39 0 0 Left 0
SYMATTR InstName V1
SYMATTR Value 12
SYMBOL res 784 272 R90
WINDOW 0 0 56 VBottom 2
WINDOW 3 32 56 VTop 2
SYMATTR InstName R1
SYMATTR Value 10k
SYMBOL res 656 272 R90
WINDOW 0 0 56 VBottom 2
WINDOW 3 32 56 VTop 2
SYMATTR InstName R2
SYMATTR Value 100k
SYMBOL res 656 368 R90
WINDOW 0 0 56 VBottom 2
WINDOW 3 32 56 VTop 2
SYMATTR InstName R3
SYMATTR Value 330
SYMBOL OpAmps\\ADA4891 720 80 R0
SYMATTR InstName U1
SYMBOL nmos 1680 48 R0
SYMATTR InstName M1
SYMATTR Value IRF7413
SYMBOL ind 1712 -96 R0
SYMATTR InstName L1
SYMATTR Value 10m
SYMATTR SpiceLine Rser=1m
SYMBOL res 1744 -176 R180
WINDOW 0 36 76 Left 2
WINDOW 3 36 40 Left 2
SYMATTR InstName R4
SYMATTR Value 1
SYMBOL OpAmps\\ADA4891 672 -112 R180
SYMATTR InstName U2
SYMBOL res 880 -176 R90
WINDOW 0 0 56 VBottom 2
WINDOW 3 32 56 VTop 2
SYMATTR InstName R5
SYMATTR Value 10k
SYMBOL res 672 -32 R90
WINDOW 0 0 56 VBottom 2
WINDOW 3 32 56 VTop 2
SYMATTR InstName R6
SYMATTR Value 10k
SYMBOL res 944 -304 R90
WINDOW 0 0 56 VBottom 2
WINDOW 3 32 56 VTop 2
SYMATTR InstName R7
SYMATTR Value 10k
SYMBOL res 768 -320 R180
WINDOW 0 36 76 Left 2
WINDOW 3 36 40 Left 2
SYMATTR InstName R8
SYMATTR Value 10k
SYMBOL schottky 1840 48 R270
WINDOW 0 32 32 VTop 2
WINDOW 3 0 32 VBottom 2
SYMATTR InstName D1
SYMATTR Value MBRS130L
SYMATTR Description Diode
SYMATTR Type diode
SYMBOL cap 2000 80 R0
SYMATTR InstName C1
SYMATTR Value 1µ
SYMBOL res 2176 160 R180
WINDOW 0 36 76 Left 2
WINDOW 3 36 40 Left 2
SYMATTR InstName R9
SYMATTR Value 10k
SYMBOL npn 1264 0 R0
SYMATTR InstName Q1
SYMATTR Value 2N2222
SYMBOL res 1664 112 R90
WINDOW 0 0 56 VBottom 2
WINDOW 3 32 56 VTop 2
SYMATTR InstName R10
SYMATTR Value 33
SYMBOL npn 1264 160 R0
SYMATTR InstName Q2
SYMATTR Value 2N2222
SYMBOL npn 1136 240 R0
SYMATTR InstName Q3
SYMATTR Value 2N2222
SYMBOL res 1088 160 R270
WINDOW 0 32 56 VTop 2
WINDOW 3 0 56 VBottom 2
SYMATTR InstName R12
SYMATTR Value 220
SYMBOL res 1024 304 R270
WINDOW 0 32 56 VTop 2
WINDOW 3 0 56 VBottom 2
SYMATTR InstName R13
SYMATTR Value 2.2k
SYMBOL res 1552 256 R180
WINDOW 0 36 76 Left 2
WINDOW 3 36 40 Left 2
SYMATTR InstName R14
SYMATTR Value 2.2k
TEXT 144 184 Left 2 !.tran 0 0.05 0
